Version 4
SHEET 1 1284 680
WIRE 176 -208 -48 -208
WIRE 416 -208 240 -208
WIRE -160 -64 -256 -64
WIRE -48 -64 -48 -208
WIRE -48 -64 -80 -64
WIRE 0 -64 -48 -64
WIRE 96 -64 80 -64
WIRE 192 -64 96 -64
WIRE 240 -64 192 -64
WIRE 416 -48 416 -208
WIRE 416 -48 304 -48
WIRE 512 -48 416 -48
WIRE -256 -32 -256 -64
WIRE 96 -32 96 -64
WIRE 192 48 192 -64
WIRE 224 48 192 48
WIRE 416 48 416 -48
WIRE 416 48 304 48
WIRE 192 80 192 48
WIRE 96 96 96 32
WIRE -256 112 -256 48
WIRE 192 208 192 160
FLAG 96 96 0
FLAG 192 208 0
FLAG 512 -48 Vout
FLAG -256 112 0
SYMBOL Opamps\\UniversalOpamp2 272 -48 M180
SYMATTR InstName LM833
SYMBOL res -64 -80 R90
WINDOW 0 0 56 VBottom 2
WINDOW 3 32 56 VTop 2
SYMATTR InstName R1
SYMATTR Value 15
SYMBOL res 96 -80 R90
WINDOW 0 0 56 VBottom 2
WINDOW 3 32 56 VTop 2
SYMATTR InstName R2
SYMATTR Value 15
SYMBOL res 320 32 R90
WINDOW 0 0 56 VBottom 2
WINDOW 3 32 56 VTop 2
SYMATTR InstName R3
SYMATTR Value 10k
SYMBOL res 208 176 R180
WINDOW 0 36 76 Left 2
WINDOW 3 36 40 Left 2
SYMATTR InstName R4
SYMATTR Value 10k
SYMBOL cap 80 -32 R0
SYMATTR InstName C1
SYMATTR Value {mc(10n,tola)}
SYMBOL cap 240 -224 R90
WINDOW 0 0 32 VBottom 2
WINDOW 3 32 32 VTop 2
SYMATTR InstName C2
SYMATTR Value {mc(10n,tolb)}
SYMBOL voltage -256 -48 R0
SYMATTR InstName Vin
TEXT 144 376 Left 2 !.lib "C:\\Users\\Usuario\\source\\repos\\TP3-Electro\\TP-Final\\LTSpice\\Placa de Altium\\LM833\\LM833.LIB"
TEXT 152 408 Left 2 !.param tola=0.05
TEXT 160 432 Left 2 !.param tolb=0.05
TEXT 160 456 Left 2 !.step param run 1 100 1
TEXT 168 496 Left 2 !.dc Vin 0 1 .1
